27
some random comment
   O       -2.547204000000    0.187936000000   -0.213755000000
   C       -1.382858000000   -0.147379000000   -0.229486000000
   C       -0.230760000000    0.488337000000    0.565230000000
   C       -0.768352000000   -1.287324000000   -1.044279000000
   C       -0.563049000000    1.864528000000    1.124041000000
   C        0.716269000000   -1.203805000000   -0.624360000000
   C        0.929548000000    0.325749000000   -0.438982000000
   C        0.080929000000   -0.594841000000    1.638832000000
   C        0.791379000000   -1.728570000000    0.829268000000
   C        2.305990000000    0.692768000000    0.129924000000
   C        0.730586000000    1.139634000000   -1.733020000000
   H       -1.449798000000    1.804649000000    1.756791000000
   H       -0.781306000000    2.571791000000    0.321167000000
   H        0.263569000000    2.255213000000    1.719313000000
   H        1.413749000000   -1.684160000000   -1.316904000000
   H       -0.928638000000   -1.106018000000   -2.110152000000
   H       -1.245108000000   -2.239900000000   -0.799431000000
   H        1.816886000000   -1.883799000000    1.170885000000
   H        0.276292000000   -2.687598000000    0.915376000000
   H       -0.817893000000   -0.939327000000    2.156614000000
   H        0.738119000000   -0.159990000000    2.396232000000
   H        3.085409000000    0.421803000000   -0.586828000000
   H        2.371705000000    1.769892000000    0.297106000000
   H        2.531884000000    0.195217000000    1.071909000000
   H        0.890539000000    2.201894000000   -1.536852000000
   H        1.455250000000    0.830868000000   -2.487875000000
   H       -0.267696000000    1.035608000000   -2.160680000000
